NDPIS/Case2/WithoutDG/Case2_WithoutDG_Power_elem_kVA.txt

CIRCUIT ELEMENT POWER FLOW

(Power Flow into element from indicated Bus)

Power Delivery Elements

  Bus     Phase     kW     +j   kvar         kVA         PF

ELEMENT = "Vsource.SOURCE"
SOURCEBUS     1     -1760.4 +j   -582.2     1854.2       0.9494
SOURCEBUS     2     -1760.4 +j   -582.2     1854.2       0.9494
SOURCEBUS     3     -1760.4 +j   -582.2     1854.2       0.9494
   TERMINAL TOTAL . -5281.3 +j  -1746.5     5562.6       0.9494
SOURCEBUS     0         0.0 +j      0.0        0.0       1.0000
SOURCEBUS     0         0.0 +j      0.0        0.0       1.0000
SOURCEBUS     0         0.0 +j      0.0        0.0       1.0000
   TERMINAL TOTAL .     0.0 +j      0.0        0.0       1.0000

ELEMENT = "Line.01"
SOURCEBUS     1      1760.4 +j    582.2     1854.2       0.9494
SOURCEBUS     2      1760.4 +j    582.2     1854.2       0.9494
SOURCEBUS     3      1760.4 +j    582.2     1854.2       0.9494
   TERMINAL TOTAL .  5281.3 +j   1746.5     5562.6       0.9494
2             1     -1742.1 +j   -557.6     1829.1       0.9524
2             2     -1742.1 +j   -557.6     1829.1       0.9524
2             3     -1742.1 +j   -557.6     1829.1       0.9524
   TERMINAL TOTAL . -5226.2 +j  -1672.9     5487.4       0.9524

ELEMENT = "Line.02"
2             1      1742.1 +j    557.6     1829.1       0.9524
2             2      1742.1 +j    557.6     1829.1       0.9524
2             3      1742.1 +j    557.6     1829.1       0.9524
   TERMINAL TOTAL .  5226.2 +j   1672.9     5487.4       0.9524
3             1     -1735.5 +j   -540.3     1817.7       0.9548
3             2     -1735.5 +j   -540.3     1817.7       0.9548
3             3     -1735.5 +j   -540.3     1817.7       0.9548
   TERMINAL TOTAL . -5206.6 +j  -1621.0     5453.1       0.9548

ELEMENT = "Line.03"
3             1      1218.9 +j    307.0     1257.0       0.9697
3             2      1218.9 +j    307.0     1257.0       0.9697
3             3      1218.9 +j    307.0     1257.0       0.9697
   TERMINAL TOTAL .  3656.7 +j    921.1     3770.9       0.9697
4             1     -1215.8 +j   -298.7     1252.0       0.9711
4             2     -1215.8 +j   -298.7     1252.0       0.9711
4             3     -1215.8 +j   -298.7     1252.0       0.9711
   TERMINAL TOTAL . -3647.4 +j   -896.2     3755.9       0.9711

ELEMENT = "Line.04"
4             1       699.2 +j     65.4      702.2       0.9956
4             2       699.2 +j     65.4      702.2       0.9956
4             3       699.2 +j     65.4      702.2       0.9956
   TERMINAL TOTAL .  2097.5 +j    196.3     2106.6       0.9956
5             1      -698.0 +j    -63.8      700.9       0.9958
5             2      -698.0 +j    -63.8      700.9       0.9958
5             3      -698.0 +j    -63.8      700.9       0.9958
   TERMINAL TOTAL . -2093.9 +j   -191.5     2102.6       0.9958

ELEMENT = "Line.05"
5             1       698.0 +j     63.8      700.9       0.9958
5             2       698.0 +j     63.8      700.9       0.9958
5             3       698.0 +j     63.8      700.9       0.9958
   TERMINAL TOTAL .  2093.9 +j    191.5     2102.6       0.9958
6             1      -691.6 +j    -46.9      693.2       0.9977
6             2      -691.6 +j    -46.9      693.2       0.9977
6             3      -691.6 +j    -46.9      693.2       0.9977
   TERMINAL TOTAL . -2074.8 +j   -140.8     2079.5       0.9977

ELEMENT = "Line.06"
6             1       225.0 +j   -106.1      248.7      -0.9044
6             2       225.0 +j   -106.1      248.7      -0.9044
6             3       225.0 +j   -106.1      248.7      -0.9044
   TERMINAL TOTAL .   674.9 +j   -318.4      746.2      -0.9044
7             1      -224.5 +j    107.4      248.9      -0.9021
7             2      -224.5 +j    107.4      248.9      -0.9021
7             3      -224.5 +j    107.4      248.9      -0.9021
   TERMINAL TOTAL .  -673.5 +j    322.1      746.6      -0.9021

ELEMENT = "Line.07"
7             1       224.5 +j     74.1      236.4       0.9496
7             2       224.5 +j     74.1      236.4       0.9496
7             3       224.5 +j     74.1      236.4       0.9496
   TERMINAL TOTAL .   673.5 +j    222.2      709.2       0.9496
8             1      -224.3 +j    -73.6      236.1       0.9502
8             2      -224.3 +j    -73.6      236.1       0.9502
8             3      -224.3 +j    -73.6      236.1       0.9502
   TERMINAL TOTAL .  -672.9 +j   -220.7      708.2       0.9502

ELEMENT = "Line.08"
8             1         0.0 +j      0.0        0.0       0.3460
8             2        -0.0 +j      0.0        0.0      -0.1200
8             3         0.0 +j      0.0        0.0       1.0000
   TERMINAL TOTAL .     0.0 +j      0.0        0.0       0.0713
9             1        -0.0 +j     -0.0        0.0       0.3460
9             2         0.0 +j     -0.0        0.0      -0.1200
9             3         0.0 +j      0.0        0.0       1.0000
   TERMINAL TOTAL .    -0.0 +j     -0.0        0.0       0.0713

ELEMENT = "Capacitor.C1"
7             1         0.0 +j   -181.4      181.4       1.0000
7             2         0.0 +j   -181.4      181.4       1.0000
7             3         0.0 +j   -181.4      181.4       1.0000
   TERMINAL TOTAL .     0.0 +j   -544.3      544.3       1.0000
7             0         0.0 +j      0.0        0.0       1.0000
7             0         0.0 +j      0.0        0.0       1.0000
7             0         0.0 +j      0.0        0.0       1.0000
   TERMINAL TOTAL .     0.0 +j      0.0        0.0       1.0000

= = = = = = = = = = = = = = = = = = =  = = = = = = = = = = =  = =

Power Conversion Elements

  Bus     Phase     kW   +j  kvar         kVA         PF

ELEMENT = "Load.1"
3             1     516.7 +j  233.3      566.9       0.9114
3             2     516.7 +j  233.3      566.9       0.9114
3             3     516.7 +j  233.3      566.9       0.9114
  TERMINAL TOTAL  .  1550.0 +j    699.9     1700.7       0.9114

ELEMENT = "Load.2"
4             1     516.7 +j  233.3      566.9       0.9114
4             2     516.7 +j  233.3      566.9       0.9114
4             3     516.7 +j  233.3      566.9       0.9114
  TERMINAL TOTAL  .  1550.0 +j    699.9     1700.7       0.9114

ELEMENT = "Load.3"
6             1     466.7 +j  153.1      491.1       0.9502
6             2     466.7 +j  153.1      491.1       0.9502
6             3     466.7 +j  153.1      491.1       0.9502
  TERMINAL TOTAL  .  1400.0 +j    459.2     1473.3       0.9502

ELEMENT = "Load.4"
8             1     224.3 +j   73.6      236.1       0.9502
8             2     224.3 +j   73.6      236.1       0.9502
8             3     224.3 +j   73.6      236.1       0.9502
  TERMINAL TOTAL  .   673.0 +j    220.7      708.2       0.9502

ELEMENT = "Load.5"
9             1       0.0 +j    0.0        0.0       1.0000
9             2       0.0 +j    0.0        0.0       1.0000
9             3       0.0 +j    0.0        0.0       1.0000
  TERMINAL TOTAL  .     0.0 +j      0.0        0.0       1.0000


Total Circuit Losses =  108.7 +j  211.0
